-------------------------------------------------------
          Amber 16 SANDER                              2016
          -------------------------------------------------------

  [-O]verwriting output

File Assignments:

 Here is the input file:

Implicit solvent constant pH molecular dynamics
 &cntrl 		! BELOW: Comments explaining why each variable was chosen.
   imin=0, 		! Turn off minimization
   irest=1, 		! Use past velocities from coordinate files
   ntx=5, 		! Coordinates and velocities from the input file will be used
   ntpr=1000, 		! Print readable energy information every 1000 steps in the .out file
   ntwx=1000, 		! Update the coordinate trajectory file every 1000 steps
   nstlim=500000,
   dt=0.002, 		! Simulated time between steps; the tutorial value is used
   ntt=3, 		! Langevin thermostat (part of heating/temperature mechanism)
   tempi=310, 		! Temperature of 310 K = roughly 37 degrees C = avg. human body temp.
   temp0=310, 		! Temperature of 310 K = roughly 37 degrees C = avg. human body temp.
   tautp=2.0, 		! Time constant for heat bath coupling; used by Swails and McGee in their tutorial
   ig=-1, 		! Avoids "synchronization" artifacts while using Langevin thermostat
   ntp=0, 		! Default value; no pressure scaling.
   ntc=2, 		! Bond length constraints on bonds involving hydrogen (used by Swails and McGee)
   ntf=2, 		! Recommended by Amber manual when ntc=2
   cut=30, 		! Cutoff used by Mongan et al. when creating this CpHMD method
   ntb=0, 		! Default; no longer needed, and thus set to 0
   igb=2, 		! Use the GB model CpHMD was parametrized for
   saltcon=0.1, 	! Use the salt conc. CpHMD was parametrized for
   nrespa=1, 		! According to Amber manual (p.443), this should equal 1 in implicit solvent
   tol=0.000001, 	! Recommended by Amber manual to be <.00005. Used value from tutorial (see above).
   icnstph=1, 		! Turn on constant pH
   solvph=7.2, 		! Solvent pH value
   ntcnstph=1, 		! Attempt to change protonation states every step
   gamma_ln=5.0, 	! Used in the aforementioned tutorial; values of 2-5 recommended by Amber manual.
   ntwr=10000, 		! Saves copies of important files every 10000 steps as backups in case crashes occur
   ioutfm=1, 		! Output files are in binary formats, making them smaller and generally more useful
  /

--------------------------------------------------------------------------------
   1.  RESOURCE   USE:
--------------------------------------------------------------------------------

 NATOM  =    2256 NTYPES =      14 NBONH =    1158 MBONA  =    1122
 NTHETH =    2600 MTHETA =    1510 NPHIH =    5031 MPHIA  =    3799
 NHPARM =       0 NPARM  =       0 NNB   =   12429 NRES   =     138
 NBONA  =    1122 NTHETA =    1510 NPHIA =    3799 NUMBND =      46
 NUMANG =     108 NPTRA  =      42 NATYP =      28 NPHB   =       0
 IFBOX  =       0 NMXRS  =      24 IFCAP =       0 NEXTRA =       0
 NCOPY  =       0

 Implicit solvent radii are H(N)-modified Bondi radii (mbondi2)

Note: ig = -1. Setting random seed to    34422 based on wallclock time in microseconds
      and disabling the synchronization of random numbers between tasks
      to improve performance.

--------------------------------------------------------------------------------
   2.  CONTROL  DATA  FOR  THE  RUN
--------------------------------------------------------------------------------

default_name

General flags:
     imin    =       0, nmropt  =       0

Nature and format of input:
     ntx     =       5, irest   =       1, ntrx    =       1

Nature and format of output:
     ntxo    =       2, ntpr    =    1000, ntrx    =       1, ntwr    =   10000
     iwrap   =       0, ntwx    =    1000, ntwv    =       0, ntwe    =       0
     ioutfm  =       1, ntwprt  =       0, idecomp =       0, rbornstat=      0

Potential function:
     ntf     =       2, ntb     =       0, igb     =       2, nsnb    =      25
     ipol    =       0, gbsa    =       0, iesp    =       0
     dielc   =   1.00000, cut     =  30.00000, intdiel =   1.00000
     saltcon =   0.10000, offset  =   0.09000, gbalpha=    0.80000
     gbbeta  =   0.00000, gbgamma =   2.90912, surften =   0.00500
     rdt     =   0.00000, rgbmax  =  25.00000  extdiel =  78.50000
     alpb  =        0

Frozen or restrained atoms:
     ibelly  =       0, ntr     =       0

Molecular dynamics:
     nstlim  =    500000, nscm    =      1000, nrespa  =         1
     t       =   0.00000, dt      =   0.00200, vlimit  =  20.00000

Langevin dynamics temperature regulation:
     ig      =   34422
     temp0   = 310.00000, tempi   = 310.00000, gamma_ln=   5.00000

SHAKE:
     ntc     =       2, jfastw  =       0
     tol     =   0.00000

Constant pH options:
     ntcnstph =       1
     solvph =   7.20000

--------------------------------------------------------------------------------
   3.  ATOMIC COORDINATES AND VELOCITIES
--------------------------------------------------------------------------------

default_name
 begin time read from input coords =  2000.000 ps

 Number of triangulated 3-point waters found:        0

--------------------------------------------------------------------------------
   4.  RESULTS
 NSTEP =     1000   TIME(PS) =    2002.000  TEMP(K) =   314.96  PRESS =     0.0
 Etot   =      -679.8691  EKtot   =      1755.6125  EPtot      =     -2435.4816
 BOND   =       420.9653  ANGLE   =      1278.2290  DIHED      =      1510.7722
 1-4 NB =       442.3074  1-4 EEL =      7341.9770  VDWAALS    =      -914.5628
 EELEC  =     -9962.0214  EGB     =     -2553.1483  RESTRAINT  =         0.0000
 ------------------------------------------------------------------------------

      A V E R A G E S   O V E R  500000 S T E P S

 NSTEP =   500000   TIME(PS) =    3000.000  TEMP(K) =   309.89  PRESS =     0.0
 Etot   =      -786.6127  EKtot   =      1727.3407  EPtot      =     -2513.9534
 BOND   =       451.0166  ANGLE   =      1251.9099  DIHED      =      1471.4237
 1-4 NB =       460.1693  1-4 EEL =      7387.6790  VDWAALS    =      -919.4798
 EELEC  =    -10075.9126  EGB     =     -2540.7594  RESTRAINT  =         0.0000
 ------------------------------------------------------------------------------

      R M S  F L U C T U A T I O N S

 NSTEP =   500000   TIME(PS) =    3000.000  TEMP(K) =     5.83  PRESS =     0.0
 Etot   =        55.1453  EKtot   =        32.4984  EPtot      =        44.3422
 BOND   =        18.3802  ANGLE   =        27.4430  DIHED      =        16.7838
 1-4 NB =         9.2481  1-4 EEL =        36.1287  VDWAALS    =        22.9338
 EELEC  =       170.4052  EGB     =       168.4896  RESTRAINT  =         0.0000
 ------------------------------------------------------------------------------
