-------------------------------------------------------
          Amber 16 SANDER                              2016
          -------------------------------------------------------

  [-O]verwriting output

File Assignments:

 Here is the input file:

Implicit solvent constant pH molecular dynamics
 &cntrl
   imin=0, irest=1, ntx=5,
   ntpr=1000, ntwx=1000, nstlim=500000,
   dt=0.002, ntt=3, tempi=310,
   temp0=310, tautp=2.0, ig=-1,
   ntp=0, ntc=2, ntf=2, cut=30,
   ntb=0, igb=2, saltcon=0.1,
   nrespa=1, tol=0.000001, icnstph=1,
   solvph=5, ntcnstph=5,
   gamma_ln=5.0, ntwr=10000, ioutfm=1,
  /

--------------------------------------------------------------------------------
   1.  RESOURCE   USE:
--------------------------------------------------------------------------------

 NATOM  =    2256 NTYPES =      14 NBONH =    1158 MBONA  =    1122
 NTHETH =    2600 MTHETA =    1510 NPHIH =    5031 MPHIA  =    3799
 NHPARM =       0 NPARM  =       0 NNB   =   12429 NRES   =     138
 NBONA  =    1122 NTHETA =    1510 NPHIA =    3799 NUMBND =      46
 NUMANG =     108 NPTRA  =      42 NATYP =      28 NPHB   =       0
 IFBOX  =       0 NMXRS  =      24 IFCAP =       0 NEXTRA =       0
 NCOPY  =       0

 Implicit solvent radii are H(N)-modified Bondi radii (mbondi2)

Note: ig = -1. Setting random seed to   406283 based on wallclock time in microseconds
      and disabling the synchronization of random numbers between tasks
      to improve performance.

--------------------------------------------------------------------------------
   2.  CONTROL  DATA  FOR  THE  RUN
--------------------------------------------------------------------------------

default_name

General flags:
     imin    =       0, nmropt  =       0

Nature and format of input:
     ntx     =       5, irest   =       1, ntrx    =       1

Nature and format of output:
     ntxo    =       2, ntpr    =    1000, ntrx    =       1, ntwr    =   10000
     iwrap   =       0, ntwx    =    1000, ntwv    =       0, ntwe    =       0
     ioutfm  =       1, ntwprt  =       0, idecomp =       0, rbornstat=      0

Potential function:
     ntf     =       2, ntb     =       0, igb     =       2, nsnb    =      25
     ipol    =       0, gbsa    =       0, iesp    =       0
     dielc   =   1.00000, cut     =  30.00000, intdiel =   1.00000
     saltcon =   0.10000, offset  =   0.09000, gbalpha=    0.80000
     gbbeta  =   0.00000, gbgamma =   2.90912, surften =   0.00500
     rdt     =   0.00000, rgbmax  =  25.00000  extdiel =  78.50000
     alpb  =        0

Frozen or restrained atoms:
     ibelly  =       0, ntr     =       0

Molecular dynamics:
     nstlim  =    500000, nscm    =      1000, nrespa  =         1
     t       =   0.00000, dt      =   0.00200, vlimit  =  20.00000

Langevin dynamics temperature regulation:
     ig      =  406283
     temp0   = 310.00000, tempi   = 310.00000, gamma_ln=   5.00000

SHAKE:
     ntc     =       2, jfastw  =       0
     tol     =   0.00000

Constant pH options:
     ntcnstph =       5
     solvph =   5.00000

--------------------------------------------------------------------------------
   3.  ATOMIC COORDINATES AND VELOCITIES
--------------------------------------------------------------------------------

default_name
 begin time read from input coords =  2000.000 ps

 Number of triangulated 3-point waters found:        0

--------------------------------------------------------------------------------
   4.  RESULTS
 NSTEP =     1000   TIME(PS) =    2002.000  TEMP(K) =   309.80  PRESS =     0.0
 Etot   =      -542.9410  EKtot   =      1726.8460  EPtot      =     -2269.7870
 BOND   =       471.7635  ANGLE   =      1277.4776  DIHED      =      1524.5769
 1-4 NB =       449.3425  1-4 EEL =      7373.4690  VDWAALS    =      -878.9257
 EELEC  =     -9447.1368  EGB     =     -3040.3541  RESTRAINT  =         0.0000
 ------------------------------------------------------------------------------

      A V E R A G E S   O V E R  500000 S T E P S

 NSTEP =   500000   TIME(PS) =    3000.000  TEMP(K) =   309.92  PRESS =     0.0
 Etot   =      -752.6319  EKtot   =      1727.4972  EPtot      =     -2480.1291
 BOND   =       451.7405  ANGLE   =      1253.6259  DIHED      =      1471.1283
 1-4 NB =       462.1262  1-4 EEL =      7373.0104  VDWAALS    =      -919.1078
 EELEC  =     -9633.6236  EGB     =     -2939.0290  RESTRAINT  =         0.0000
 ------------------------------------------------------------------------------

      R M S  F L U C T U A T I O N S

 NSTEP =   500000   TIME(PS) =    3000.000  TEMP(K) =     5.80  PRESS =     0.0
 Etot   =        60.1556  EKtot   =        32.3465  EPtot      =        50.7840
 BOND   =        18.3514  ANGLE   =        27.0134  DIHED      =        16.6349
 1-4 NB =         9.3765  1-4 EEL =        62.2675  VDWAALS    =        20.4252
 EELEC  =       225.3339  EGB     =       199.2339  RESTRAINT  =         0.0000
 ------------------------------------------------------------------------------
